Matlab files/psse raw file/Maui2022dm_rd_v33_shunt_OnlyLoad.raw
0,    10.00, 33, 0, 1, 60.00     / PSS(R)E 33 RAW created by rawd33  MON, DEC 20 2021  10:37
MECO 2022 DAY MIN -  97.0 MW
67.0 MW DG PV - TOTAL SYSTEM LOAD IN CASE ~164MW
     3,'WLUKU23     ',  23.0000,1,   1,   5,   1,1.00918,  -3.8799,1.10000,0.90000,1.10000,0.90000
     4,'PUUNENE     ',  69.0000,1,   1,   9,   1,1.00381,  -2.6982,1.10000,0.90000,1.10000,0.90000
     5,'MAUI PIN    ',  23.0000,1,   1,   5,   1,1.01028,  -3.8824,1.10000,0.90000,1.10000,0.90000
     7,'WAI WELL    ',  23.0000,1,   1,   6,   1,1.00591,  -3.9421,1.10000,0.90000,1.10000,0.90000
     8,'KAHU SUB    ',  23.0000,1,   1,   5,   1,1.01028,  -3.8824,1.10000,0.90000,1.10000,0.90000
     9,'KAILUA      ',  23.0000,1,   1,   3,   1,0.99759,  -7.5525,1.10000,0.90000,1.10000,0.90000
    12,'MAKAWAO     ',  23.0000,1,   1,   3,   1,0.98976,  -5.0952,1.10000,0.90000,1.10000,0.90000
    13,'KULA 12     ',  12.4700,2,   1,  13, 613,1.00737,  -2.8947,1.10000,0.90000,1.10000,0.90000
    15,'KOKOMO      ',  23.0000,1,   1,   3,   1,0.98848,  -5.2595,1.10000,0.90000,1.10000,0.90000
    16,'HAIKU       ',  23.0000,1,   1,   3,   1,0.98363,  -5.9194,1.10000,0.90000,1.10000,0.90000
    18,'WLUKU HT    ',  23.0000,1,   1,   6,   1,1.00327,  -4.0469,1.10000,0.90000,1.10000,0.90000
    22,'WS PUMP     ',  23.0000,1,   1,   6,   1,1.00313,  -4.0479,1.10000,0.90000,1.10000,0.90000
    23,'PUUKOL B    ',  69.0000,1,  11,   1,   1,1.00699,  -2.5138,1.10000,0.90000,1.10000,0.90000
    25,'WAILEA      ',  69.0000,1,   1,  12,   1,1.01481,  -2.0717,1.10000,0.90000,1.10000,0.90000
    29,'NAPILI A    ',  69.0000,1,  11,   1,   1,1.00587,  -2.5980,1.10000,0.90000,1.10000,0.90000
    30,'MOKUHAU     ',  23.0000,1,   1,   6,   1,1.00451,  -4.0321,1.10000,0.90000,1.10000,0.90000
    31,'KAMOLE      ',  23.0000,1,   1,   3,   1,0.98567,  -5.6209,1.10000,0.90000,1.10000,0.90000
    33,'WS MILL     ',  23.0000,1,   1,   6,   1,1.00852,  -3.9017,1.10000,0.90000,1.10000,0.90000
    34,'LAHAINA     ',  69.0000,1,  11,   1,   1,1.01105,  -2.1860,1.10000,0.90000,1.10000,0.90000
    35,'KIHEI       ',  69.0000,1,   1,  12,   1,1.01397,  -2.1766,1.10000,0.90000,1.10000,0.90000
    39,'MAALAEA     ',  69.0000,1,   1,  11,   1,1.02029,  -1.8022,1.10000,0.90000,1.10000,0.90000
    40,'ONEHEE      ',  23.0000,1,   1,   5,   1,1.00891,  -3.8821,1.10000,0.90000,1.10000,0.90000
    41,'HANA        ',  23.0000,1,   1,   3,   1,0.95010,  -9.6670,1.10000,0.90000,1.10000,0.90000
    42,'KEANAE      ',  23.0000,1,   1,   3,   1,0.98083,  -8.3161,1.10000,0.90000,1.10000,0.90000
    43,'WAIEHU      ',  23.0000,1,   1,   6,   1,1.00531,  -3.9034,1.10000,0.90000,1.10000,0.90000
    44,'DET 03      ',   0.4800,1,   1,  14, 613,0.99417,  -3.1499,1.10000,0.90000,1.10000,0.90000
    45,'HALEKALA    ',   4.1600,1,   1,  14, 613,1.04318,  -3.1405,1.10000,0.90000,1.10000,0.90000
    48,'MAUIBLOC    ',  23.0000,1,   1,   6,   1,1.00878,  -3.8297,1.10000,0.90000,1.10000,0.90000
    50,'MAHINA A    ',  69.0000,1,  11,   1,   1,1.00594,  -2.5909,1.10000,0.90000,1.10000,0.90000
    61,'HOSMER      ',  23.0000,1,   1,  14,   1,0.99455,  -2.9179,1.10000,0.90000,1.10000,0.90000
    64,'PUUNENE     ',  23.0000,1,   1,   4,   1,1.01863,  -3.4953,1.10000,0.90000,1.10000,0.90000
    73,'KUAU        ',  23.0000,1,   1,   2,   1,1.00888,  -3.8690,1.10000,0.90000,1.10000,0.90000
    74,'HUELO       ',  23.0000,1,   1,   3,   1,0.99845,  -7.4885,1.10000,0.90000,1.10000,0.90000
    75,'NEWHDWD     ',  23.0000,1,   1,   4,   1,1.01866,  -3.4857,1.10000,0.90000,1.10000,0.90000
    77,'WAIKAPU     ',  23.0000,1,   1,   6,   1,1.00871,  -3.8306,1.10000,0.90000,1.10000,0.90000
    82,'AMERON      ',  23.0000,1,   1,   4,   1,1.01855,  -3.5069,1.10000,0.90000,1.10000,0.90000
    83,'KEALAHOU    ',  69.0000,1,   1,  13,   1,1.01366,  -2.1824,1.10000,0.90000,1.10000,0.90000
    84,'LAHALUNA    ',  69.0000,1,  11,   1,   1,1.01099,  -2.2341,1.10000,0.90000,1.10000,0.90000
    88,'AMERBLDG    ',  23.0000,1,   1,   4,   1,1.01856,  -3.5068,1.10000,0.90000,1.10000,0.90000
    92,'SPRECK      ',  23.0000,1,   1,   2,   1,1.01182,  -3.7605,1.10000,0.90000,1.10000,0.90000
    93,'PAIAMKA     ',  23.0000,1,   1,   2,   1,1.00912,  -3.8518,1.10000,0.90000,1.10000,0.90000
    97,'KWP         ',  69.0000,1,   1,  11,   1,1.02201,  -0.9922,1.10000,0.90000,1.10000,0.90000
    98,'KAUHIKOA    ',  12.4700,2,   1,   3,   1,1.04141,  -5.6864,1.10000,0.90000,1.10000,0.90000
   101,'KGS-1       ',  11.5000,2,   1,  19,   1,1.00085,  -3.6322,1.10000,0.90000,1.10000,0.90000
   102,'KGS-2       ',  11.5000,2,   1,  19,   1,0.97004,  -3.6701,1.10000,0.90000,1.10000,0.90000
   103,'KGS-3       ',  11.5000,2,   1,  19,   1,0.99071,  -2.8183,1.10000,0.90000,1.10000,0.90000
   104,'KGS-4       ',  11.5000,2,   1,  19,   1,1.00950,  -3.0559,1.10000,0.90000,1.10000,0.90000
   105,'MGS-123     ',   4.1600,2,   1,  20,   1,0.95720,  -1.8022,1.10000,0.90000,1.10000,0.90000
   106,'MGS-458     ',   4.1600,2,   1,  20,   2,0.95651,  -1.8672,1.10000,0.90000,1.10000,0.90000
   107,'MGS-679     ',   4.1600,2,   1,  20,   2,0.95650,  -1.8674,1.10000,0.90000,1.10000,0.90000
   108,'MGS-1011    ',   6.9000,2,   1,  20,   2,0.96938,  -1.8629,1.10000,0.90000,1.10000,0.90000
   109,'MGS-1213    ',   6.9000,2,   1,  20,   2,0.96938,  -1.8629,1.10000,0.90000,1.10000,0.90000
   110,'MGS-X1X2    ',   4.1600,2,   1,  20,   1,0.98105, -31.8022,1.10000,0.90000,1.10000,0.90000
   111,'TO-23 KV SW ',  23.0000,1,   1,   5,   1,1.01116,  -3.8112,1.10000,0.90000,1.10000,0.90000
   112,'MAKA 12     ',  12.4700,2,   1,   3,  12,0.99034,  -5.3563,1.10000,0.90000,1.10000,0.90000
   123,'PUUKB 12    ',  12.4700,2,  11,   1, 823,1.00710,  -3.6435,1.10000,0.90000,1.10000,0.90000
   125,'WAILEA A    ',  12.4700,2,   1,  12,  25,1.00212,  -3.3832,1.10000,0.90000,1.10000,0.90000
   127,'CONCRETE    ',   0.4800,1,   1,   4,  27,1.02300,  -3.5072,1.10000,0.90000,1.10000,0.90000
   129,'NAPILA12    ',  12.4700,2,  11,   1, 823,1.00816,  -3.4478,1.10000,0.90000,1.10000,0.90000
   130,'BUS 13 UFLS ',  12.4700,2,   1,  13, 613,1.00737,  -2.8947,1.10000,0.90000,1.10000,0.90000
   134,'LAHAINA1    ',  12.4700,2,  11,   1,  34,1.00564,  -3.0899,1.10000,0.90000,1.10000,0.90000
   135,'KIHEI A     ',  12.4700,2,   1,  12,  35,1.00804,  -4.5954,1.10000,0.90000,1.10000,0.90000
   136,'WAIINU B    ',  12.4700,2,   1,   5, 636,1.00336,  -3.9445,1.10000,0.90000,1.10000,0.90000
   139,'MAALA A     ',  12.4700,2,   1,  11,  39,1.00723,  -3.3482,1.10000,0.90000,1.10000,0.90000
   141,'HANA 1      ',   2.4000,2,   1,   3,  41,0.97520, -11.8642,1.10000,0.90000,1.10000,0.90000
   142,'KEANAE      ',   2.4000,2,   1,   3,  42,0.97115,  -8.6509,1.10000,0.90000,1.10000,0.90000
   145,'SUMMITAP    ',  23.0000,1,   1,  14,   1,0.99384,  -2.8973,1.10000,0.90000,1.10000,0.90000
   148,'MAUIBLOC    ',   0.4800,1,   1,   6,  48,1.05116,  -3.9330,1.10000,0.90000,1.10000,0.90000
   150,'MAHINA12    ',  12.4700,2,  11,   1, 823,1.00377,  -5.2230,1.10000,0.90000,1.10000,0.90000
   155,'KULA AG     ',  12.4700,2,   1,  13, 655,1.00407,  -2.1170,1.10000,0.90000,1.10000,0.90000
   161,'HOSMER      ',   2.4000,1,   1,  14, 613,0.93890,  -6.4457,1.10000,0.90000,1.10000,0.90000
   164,'PUUNENE     ',   7.2000,1,   1,   4,  64,1.02221,  -3.5474,1.10000,0.90000,1.10000,0.90000
   173,'KUAU A      ',   4.1600,2,   1,   2,  73,0.99268,  -4.9627,1.10000,0.90000,1.10000,0.90000
   174,'HUELO 1     ',   2.4000,2,   1,   3,  74,0.99789,  -7.3007,1.10000,0.90000,1.10000,0.90000
   175,'NEWHDWD     ',  12.4700,2,   1,   4,  75,1.06910,  -3.4321,1.10000,0.90000,1.10000,0.90000
   177,'WAIKAP12    ',  12.4700,1,   1,   6,  77,1.05532,  -4.1090,1.10000,0.90000,1.10000,0.90000
   182,'AMERON      ',   0.4800,1,   1,   4,  82,1.04998,  -3.5156,1.10000,0.90000,1.10000,0.90000
   188,'AMERBLDG    ',   0.4800,1,   1,   4,  88,1.02156,  -3.5914,1.10000,0.90000,1.10000,0.90000
   192,'SPRECK      ',   4.6000,2,   1,   2,  92,1.01444,  -3.8075,1.10000,0.90000,1.10000,0.90000
   200,'KAHULUI     ',  23.0000,1,   1,   5,   1,1.02000,  -3.4975,1.10000,0.90000,1.10000,0.90000
   202,'KANAHA23    ',  23.0000,1,   1,   5,   1,1.01866,  -3.5177,1.10000,0.90000,1.10000,0.90000
   203,'KANAH A     ',  12.4700,2,   1,   7, 602,1.00283,  -5.2089,1.10000,0.90000,1.10000,0.90000
   204,'KANAH B     ',  12.4700,2,   1,   7, 602,1.00384,  -4.3189,1.10000,0.90000,1.10000,0.90000
   205,'KANAH C     ',  12.4700,2,   1,   7, 602,1.00020,  -4.7321,1.10000,0.90000,1.10000,0.90000
   206,'KWPII       ',  69.0000,1,   1,  11,   1,1.02064,  -1.3526,1.10000,0.90000,1.10000,0.90000
   209,'KAILUA A    ',   2.4000,2,   1,   3,   9,0.99990,  -8.1363,1.10000,0.90000,1.10000,0.90000
   213,'KULA 23     ',  23.0000,1,   1,  14,   1,1.00236,  -2.9256,1.10000,0.90000,1.10000,0.90000
   216,'HAIKU 2     ',  12.4700,2,   1,   3,  16,0.99198,  -6.1656,1.10000,0.90000,1.10000,0.90000
   217,'PUKLN23     ',  23.0000,1,   1,   3,   1,1.00097,  -3.9992,1.10000,0.90000,1.10000,0.90000
   223,'PUUKOL A    ',  69.0000,1,  11,   1,   1,1.00678,  -2.5260,1.10000,0.90000,1.10000,0.90000
   225,'WAILEA B    ',  12.4700,2,   1,  12,  25,1.00521,  -4.1289,1.10000,0.90000,1.10000,0.90000
   234,'LAHAINA 2   ',  12.4700,2,  11,   1,  34,1.00701,  -2.8156,1.10000,0.90000,1.10000,0.90000
   235,'KIHEI B     ',  12.4700,2,   1,  12,  35,1.00357,  -4.5707,1.10000,0.90000,1.10000,0.90000
   236,'WAIINU23    ',  23.0000,1,   1,   5,   1,1.01341,  -3.7288,1.10000,0.90000,1.10000,0.90000
   241,'HANA 2      ',   2.4000,2,   1,   3,  41,0.97135, -10.8127,1.10000,0.90000,1.10000,0.90000
   250,'MAHINA B    ',  69.0000,1,  11,   1,   1,1.00566,  -2.6153,1.10000,0.90000,1.10000,0.90000
   301,'CT-1 M14    ',  13.8000,3,   1,  20,   2,0.99300,   0.0000,1.10000,0.90000,1.10000,0.90000
   302,'CT-2 M16    ',  13.8000,2,   1,  20,   2,1.02825,  -0.1428,1.10000,0.90000,1.10000,0.90000
   303,'ST-1 M15    ',  13.8000,2,   1,  20,   2,1.01760,  -1.1550,1.10000,0.90000,1.10000,0.90000
   304,'CT-3 M17    ',  13.8000,2,   1,  20,   2,0.95141,  -1.8719,1.10000,0.90000,1.10000,0.90000
   305,'CT-4 M19    ',  13.8000,2,   1,  20,   2,0.95141,  -1.8719,1.10000,0.90000,1.10000,0.90000
   306,'ST-2 M18    ',  13.8000,2,   1,  20,   2,0.95116,  -1.8949,1.10000,0.90000,1.10000,0.90000
   325,'WAILEA C    ',  12.4700,2,   1,  12,  25,1.00408,  -3.1406,1.10000,0.90000,1.10000,0.90000
   335,'KIHEI C     ',  12.4700,2,   1,  12,  35,1.00392,  -2.9924,1.10000,0.90000,1.10000,0.90000
   336,'WAIINU C    ',  12.4700,2,   1,   5, 636,1.00494,  -3.1956,1.10000,0.90000,1.10000,0.90000
   401,'PUUNENEA    ',  69.0000,1,   1,   9,   1,1.00255,  -2.7723,1.10000,0.90000,1.10000,0.90000
   402,'PUUNENEB    ',  69.0000,1,   1,   9,   1,1.00524,  -2.6193,1.10000,0.90000,1.10000,0.90000
   403,'WLUKU A     ',   4.1600,2,   1,   5,   3,1.03418,  -4.3385,1.10000,0.90000,1.10000,0.90000
   404,'WLUKU B     ',   4.1600,2,   1,   5,   3,1.00339,  -4.4591,1.10000,0.90000,1.10000,0.90000
   405,'WLUKU C     ',  12.4700,2,   1,   5,   3,0.99447,  -3.8856,1.10000,0.90000,1.10000,0.90000
   407,'WAI WELL    ',   4.1600,1,   1,   6,   7,0.99134,  -4.5555,1.10000,0.90000,1.10000,0.90000
   415,'WLUKU D     ',  12.4700,2,   1,   5,   3,0.99286,  -5.2435,1.10000,0.90000,1.10000,0.90000
   418,'WLUKU HT    ',   4.1600,2,   1,   6,  18,0.99366,  -4.9465,1.10000,0.90000,1.10000,0.90000
   422,'WSCO PMP    ',   2.4000,1,   1,   6,  22,1.05589,  -4.1944,1.10000,0.90000,1.10000,0.90000
   425,'WAILEA D    ',  12.4700,2,   1,  12,  25,1.00248,  -3.1666,1.10000,0.90000,1.10000,0.90000
   430,'MOKU PMP    ',   2.4000,1,   1,   6,  30,1.00053,  -4.6471,1.10000,0.90000,1.10000,0.90000
   431,'KAMOLE 4    ',   4.1600,2,   1,   3,  31,0.98837,  -6.2380,1.10000,0.90000,1.10000,0.90000
   435,'KIHEI D     ',  12.4700,2,   1,  12,   1,1.00778,  -2.9360,1.10000,0.90000,1.10000,0.90000
   436,'WAIINU A    ',   4.1600,2,   1,   5, 636,0.99877,  -3.7721,1.10000,0.90000,1.10000,0.90000
   440,'ONEHEE 4    ',   4.1600,2,   1,   5,  40,0.99208,  -5.3580,1.10000,0.90000,1.10000,0.90000
   443,'WAIEHU12    ',  12.4700,2,   1,   6,  43,0.99901,  -3.8115,1.10000,0.90000,1.10000,0.90000
   493,'PAIAMKA1    ',   4.1600,2,   1,   2,  93,0.99902,  -4.6191,1.10000,0.90000,1.10000,0.90000
   501,'AUX K1      ',   0.4800,1,   1,  19,   2,0.92307,  -4.5792,1.10000,0.90000,1.10000,0.90000
   502,'AUX K2      ',   0.4800,1,   1,  19,   2,0.88774,  -5.0116,1.10000,0.90000,1.10000,0.90000
   503,'AUX K3      ',   0.4800,1,   1,  19,   2,0.86044,  -6.0735,1.10000,0.90000,1.10000,0.90000
   504,'AUX K4      ',   0.4800,1,   1,  19,   2,0.90944,  -6.0038,1.10000,0.90000,1.10000,0.90000
   511,'MPINE       ',  12.4700,1,   1,   5,   5,1.00699,  -3.8824,1.10000,0.90000,1.10000,0.90000
   534,'LAHAINA5    ',  12.4700,2,  11,   1,  34,1.00309,  -3.7888,1.10000,0.90000,1.10000,0.90000
   602,'KANAHA69    ',  69.0000,1,   1,   7,   1,1.00186,  -2.8250,1.10000,0.90000,1.10000,0.90000
   613,'KULA 69     ',  69.0000,1,   1,  13,   1,1.01031,  -2.3609,1.10000,0.90000,1.10000,0.90000
   617,'PUKLN69     ',  69.0000,1,   1,  13,   1,1.00464,  -2.7351,1.10000,0.90000,1.10000,0.90000
   623,'PUUKA 69    ',  69.0000,1,  11,   1,   1,1.00678,  -2.5260,1.10000,0.90000,1.10000,0.90000
   629,'NAPILI B    ',  69.0000,1,  11,   1,   1,1.00520,  -2.6534,1.10000,0.90000,1.10000,0.90000
   636,'WAIINU      ',  69.0000,1,   1,  10,   1,1.01185,  -2.2147,1.10000,0.90000,1.10000,0.90000
   650,'MAHINA B    ',  69.0000,1,  11,   1,   1,1.00566,  -2.6153,1.10000,0.90000,1.10000,0.90000
   655,'KULA AG     ',  69.0000,1,   1,  13,   1,1.01426,  -2.1506,1.10000,0.90000,1.10000,0.90000
   671,'JCT B       ',  23.0000,1,   1,   6,   1,1.01098,  -3.8156,1.10000,0.90000,1.10000,0.90000
   723,'PUUKA 12    ',  12.4700,2,  11,   1, 623,1.00444,  -6.0471,1.10000,0.90000,1.10000,0.90000
   729,'NAPILB12    ',  12.4700,2,  11,   1, 623,1.00518,  -3.8030,1.10000,0.90000,1.10000,0.90000
   750,'MAHINB12    ',  12.4700,2,  11,   1, 623,1.00848,  -3.5806,1.10000,0.90000,1.10000,0.90000
   803,'KAHUL 3     ',  12.4700,2,   1,   5,   8,0.99564,  -6.8785,1.10000,0.90000,1.10000,0.90000
   804,'HC&S TG4    ',  13.8000,2,   1,   9,   1,0.93675,  -2.6982,1.10000,0.90000,1.10000,0.90000
   806,'TOHANA      ',  23.0000,1,   1,   2,   1,1.01518,  -3.6412,1.10000,0.90000,1.10000,0.90000
   809,'REG         ',  23.0000,1,   1,   3,   1,0.97511,  -6.5811,1.10000,0.90000,1.10000,0.90000
   812,'MAKW JCT    ',  23.0000,1,   1,   3,   1,0.99494,  -4.5768,1.10000,0.90000,1.10000,0.90000
   813,'HOS JCT     ',  23.0000,1,   1,  14,   1,0.99603,  -2.9015,1.10000,0.90000,1.10000,0.90000
   816,'HAIK JCT    ',  23.0000,1,   1,   3,   1,0.98314,  -5.9693,1.10000,0.90000,1.10000,0.90000
   817,'PUKLN A     ',  12.4700,2,   1,  13, 617,1.00306,  -2.9322,1.10000,0.90000,1.10000,0.90000
   819,'PUUN JCT    ',  23.0000,1,   1,   4,   1,1.01864,  -3.5099,1.10000,0.90000,1.10000,0.90000
   823,'PUUKB 69    ',  69.0000,1,  11,   1,   1,1.00722,  -2.4977,1.10000,0.90000,1.10000,0.90000
   826,'            ',  23.0000,1,   1,   4,   1,1.01862,  -3.5064,1.10000,0.90000,1.10000,0.90000
   827,'CONC TAP    ',  23.0000,1,   1,   4,   1,1.01856,  -3.5068,1.10000,0.90000,1.10000,0.90000
   831,'KAML TAP    ',  23.0000,1,   1,   3,   1,0.98594,  -5.5921,1.10000,0.90000,1.10000,0.90000
   834,'LAHAIN 4    ',  12.4700,2,  11,   1,  34,1.00675,  -1.9010,1.10000,0.90000,1.10000,0.90000
   838,'            ',  23.0000,1,   1,   6,   1,1.00887,  -3.8284,1.10000,0.90000,1.10000,0.90000
   840,' TO-ONEE    ',  23.0000,1,   1,   5,   1,1.01031,  -3.8768,1.10000,0.90000,1.10000,0.90000
   844,'KAHUL 4     ',   4.1600,2,   1,   5,   8,0.99135,  -3.9716,1.10000,0.90000,1.10000,0.90000
   845,'KAHUL 5     ',   4.1600,2,   1,   5,   8,0.99101,  -4.0247,1.10000,0.90000,1.10000,0.90000
   846,'KAHUL 6     ',   4.1600,2,   1,   5,   8,0.99338,  -3.9514,1.10000,0.90000,1.10000,0.90000
   848,'JCT C       ',  23.0000,1,   1,   4,   1,1.01866,  -3.4857,1.10000,0.90000,1.10000,0.90000
   849,'REGULATO    ',  23.0000,1,   1,   3,   1,1.00625,  -6.9241,1.10000,0.90000,1.10000,0.90000
   850,'MAHINA A    ',  69.0000,1,  11,   1,   1,1.00628,  -2.5668,1.10000,0.90000,1.10000,0.90000
   858,'PUUOHALA    ',  23.0000,1,   1,   6,   1,1.00713,  -3.9476,1.10000,0.90000,1.10000,0.90000
   892,'BALWNPK     ',  23.0000,1,   1,   2,   1,1.01033,  -3.8161,1.10000,0.90000,1.10000,0.90000
   893,'PAIAMKA     ',  23.0000,1,   1,   2,   1,1.00933,  -3.8521,1.10000,0.90000,1.10000,0.90000
   898,'SUB 98 TAP  ',  23.0000,1,   1,   3,   1,0.98528,  -5.6818,1.10000,0.90000,1.10000,0.90000
   917,'PUKLN B     ',  12.4700,2,   1,  13, 617,1.00198,  -3.1780,1.10000,0.90000,1.10000,0.90000
   971,'KWP34       ',  34.5000,1,   1,  11,   1,0.99540,   1.9061,1.10000,0.90000,1.10000,0.90000
  1203,'AWFTAP69    ',  69.0000,1,   1,  12,   1,1.01619,  -1.9482,1.10000,0.90000,1.10000,0.90000
  1230,'BUS 123 UFLS',  12.4700,2,  11,   1, 823,1.00710,  -3.6435,1.10000,0.90000,1.10000,0.90000
  2030,'BUS 203 UFLS',  12.4700,2,   1,   7, 602,1.00283,  -5.2089,1.10000,0.90000,1.10000,0.90000
  2060,'KWPII34     ',  34.5000,1,   1,  11,   1,1.01828,   1.5473,1.10000,0.90000,1.10000,0.90000
  2061,'KWPII_CLT1  ',  34.5000,1,   1,  11,   1,1.01937,   1.5769,1.10000,0.90000,1.10000,0.90000
  2062,'KWPII-BESS  ',   0.4800,1,   1,  11,   1,1.01828,   1.5473,1.10000,0.90000,1.10000,0.90000
  2090,'KUIHELANI   ',  69.0000,1,   1,   9,   1,1.00943,  -2.3881,1.10000,0.90000,1.10000,0.90000
  2091,'KUIHELANI A ',  12.4700,1,   1,   5,   1,1.00355,  -2.3904,1.10000,0.90000,1.10000,0.90000
  4002,'PUUN 23     ',  23.0000,1,   1,   9,   1,1.02172,  -3.3414,1.10000,0.90000,1.10000,0.90000
  4250,'BUS 425 UFLS',  12.4700,2,   1,  12,  25,1.00248,  -3.1666,1.10000,0.90000,1.10000,0.90000
  4430,'BUS 443 UFLS',  12.4700,2,   1,   6,  43,0.99901,  -3.8115,1.10000,0.90000,1.10000,0.90000
  5340,'BUS 534 UFLS',  12.4700,2,  11,   1,  34,1.00309,  -3.7888,1.10000,0.90000,1.10000,0.90000
  7290,'BUS 729 UFLS',  12.4700,2,  11,   1, 623,1.00518,  -3.8030,1.10000,0.90000,1.10000,0.90000
  8340,'BUS 834 UFLS',  12.4700,2,  11,   1,  34,1.00675,  -1.9010,1.10000,0.90000,1.10000,0.90000
 12031,'BURIED_TERT ',  13.8000,1,   1,  12,   1,0.98393,   2.5205,1.10000,0.90000,1.10000,0.90000
 12032,'AUWAHI34    ',  34.5000,1,   1,  12,   1,0.98252,   2.1900,1.10000,0.90000,1.10000,0.90000
 12033,'XP_BESS     ',   0.4800,1,   1,  12,   1,0.98252,   2.1900,1.10000,0.90000,1.10000,0.90000
 12034,'AWFTOTAL    ',  34.5000,1,   1,  12,   1,0.98252,   2.1900,1.10000,0.90000,1.10000,0.90000
 12035,'CKT1 BUS A  ',  34.5000,1,   1,  12,   1,0.99774,   4.7688,1.10000,0.90000,1.10000,0.90000
 12036,'AUWAHI_COL1 ',  34.5000,1,   1,  12,   1,0.99990,   5.0211,1.10000,0.90000,1.10000,0.90000
 12037,'CKT2 BUS B  ',  34.5000,1,   1,  12,   1,0.99824,   4.7663,1.10000,0.90000,1.10000,0.90000
 12038,'AUWAHI_COL2 ',  34.5000,1,   1,  12,   1,1.00104,   5.0459,1.10000,0.90000,1.10000,0.90000
 90971,'KWPI_1      ',   0.5750,2,   1,  11,   1,1.00048,   4.5716,1.10000,0.90000,1.10000,0.90000
 92031,'AUWAHI_SIEM1',   0.6900,2,   1,  12,   1,1.00430,   7.2367,1.10000,0.90000,1.10000,0.90000
 92032,'AUWAHI_SIEM2',   0.6900,2,   1,  12,   1,1.00544,   7.2565,1.10000,0.90000,1.10000,0.90000
 92061,'KWPII_GEN1  ',   0.6900,2,   1,  11,   1,1.02404,   3.8962,1.10000,0.90000,1.10000,0.90000
 93101,'PROJ 1 POI A',  69.0000,1,   1,   9,   1,1.01106,  -2.2997,1.10000,0.90000,1.10000,0.90000
 93102,'PROJ 1 POI B',  69.0000,1,   1,   9,   1,1.01106,  -2.2997,1.10000,0.90000,1.10000,0.90000
 95000,'SMRR_KIHEI  ',  12.4700,2,  70,  70,   1,1.00357,  -4.5707,1.10000,0.90000,1.10000,0.90000
 96000,'KUIA_SOLAR  ',  12.4700,2,  70,  70,   1,1.00675,  -1.9010,1.10000,0.90000,1.10000,0.90000
 0 /End of Bus data, Begin Load data
     3,'1 ',1,   1,  13,     0.000,     0.000,     0.000,     0.000,     0.000,     0.000,1
     4,'1 ',1,   1,  13,     0.000,     0.000,     0.000,     0.000,     0.000,     0.000,1
     5,'1 ',1,   1,  13,     0.000,     0.000,     0.000,     0.000,     0.000,     0.000,1
     7,'1 ',1,   1,  13,     0.000,     0.000,     0.000,     0.000,     0.000,     0.000,1
     8,'1 ',1,   1,  13,     0.000,     0.000,     0.000,     0.000,     0.000,     0.000,1
     9,'1 ',1,   1,  13,     0.000,     0.000,     0.000,     0.000,     0.000,     0.000,1
    12,'1 ',1,   1,  13,     0.000,     0.000,     0.000,     0.000,     0.000,     0.000,1
    13,'1 ',1,   1,  13,     0.000,     0.000,     0.000,     0.000,     0.000,     0.000,1
    15,'1 ',1,   1,  13,     0.000,     0.000,     0.000,     0.000,     0.000,     0.000,1
    16,'1 ',1,   1,  13,     0.000,     0.000,     0.000,     0.000,     0.000,     0.000,1
    18,'1 ',1,   1,  13,     0.000,     0.000,     0.000,     0.000,     0.000,     0.000,1
    22,'1 ',1,   1,  13,     0.000,     0.000,     0.000,     0.000,     0.000,     0.000,1
    23,'1 ',1,   1,  13,     0.000,     0.000,     0.000,     0.000,     0.000,     0.000,1
    25,'1 ',1,   1,  13,     0.000,     0.000,     0.000,     0.000,     0.000,     0.000,1
    29,'1 ',1,   1,  13,     0.000,     0.000,     0.000,     0.000,     0.000,     0.000,1
    30,'1 ',1,   1,  13,     0.000,     0.000,     0.000,     0.000,     0.000,     0.000,1
    31,'1 ',1,   1,  13,     0.000,     0.000,     0.000,     0.000,     0.000,     0.000,1
    33,'1 ',1,   1,  13,     0.000,     0.000,     0.000,     0.000,     0.000,     0.000,1
    34,'1 ',1,   1,  13,     0.000,     0.000,     0.000,     0.000,     0.000,     0.000,1
    35,'1 ',1,   1,  13,     0.000,     0.000,     0.000,     0.000,     0.000,     0.000,1
    39,'1 ',1,   1,  13,     0.000,     0.000,     0.000,     0.000,     0.000,     0.000,1
    40,'1 ',1,   1,  13,     0.000,     0.000,     0.000,     0.000,     0.000,     0.000,1
    41,'1 ',1,   1,  13,     0.000,     0.000,     0.000,     0.000,     0.000,     0.000,1
    42,'1 ',1,   1,  13,     0.000,     0.000,     0.000,     0.000,     0.000,     0.000,1
    43,'1 ',1,   1,  13,     0.000,     0.000,     0.000,     0.000,     0.000,     0.000,1
    44,'1 ',1,   1,  13,     0.000,     0.000,     0.000,     0.000,     0.000,     0.000,1
    45,'1 ',1,   1,  13,     0.000,     0.000,     0.000,     0.000,     0.000,     0.000,1
    48,'1 ',1,   1,  13,     0.000,     0.000,     0.000,     0.000,     0.000,     0.000,1
    50,'1 ',1,   1,  13,     0.000,     0.000,     0.000,     0.000,     0.000,     0.000,1
    61,'1 ',1,   1,  13,     0.000,     0.000,     0.000,     0.000,     0.000,     0.000,1
    64,'1 ',1,   1,  13,     0.000,     0.000,     0.000,     0.000,     0.000,     0.000,1
    73,'1 ',1,   1,  13,     0.000,     0.000,     0.000,     0.000,     0.000,     0.000,1
    74,'1 ',1,   1,  13,     0.000,     0.000,     0.000,     0.000,     0.000,     0.000,1
    75,'1 ',1,   1,  13,     0.000,     0.000,     0.000,     0.000,     0.000,     0.000,1
    77,'1 ',1,   1,  13,     0.000,     0.000,     0.000,     0.000,     0.000,     0.000,1
    82,'1 ',1,   1,  13,     0.000,     0.000,     0.000,     0.000,     0.000,     0.000,1
    83,'1 ',1,   1,  13,     0.000,     0.000,     0.000,     0.000,     0.000,     0.000,1
    84,'1 ',1,   1,  13,     0.000,     0.000,     0.000,     0.000,     0.000,     0.000,1
    88,'1 ',1,   1,  13,     0.000,     0.000,     0.000,     0.000,     0.000,     0.000,1
    92,'1 ',1,   1,  13,     0.000,     0.000,     0.000,     0.000,     0.000,     0.000,1
    93,'1 ',1,   1,  13,     0.000,     0.000,     0.000,     0.000,     0.000,     0.000,1
    97,'1 ',1,   1,  13,     0.000,     0.000,     0.000,     0.000,     0.000,     0.000,1
    98,'1 ',1,   1,  13,     0.000,     0.000,     0.000,     0.000,     0.000,     0.000,1
   101,'1 ',1,   1,  13,     0.000,     0.000,     0.000,     0.000,     0.000,     0.000,1
   102,'1 ',1,   1,  13,     0.000,     0.000,     0.000,     0.000,     0.000,     0.000,1
   103,'1 ',1,   1,  13,     0.000,     0.000,     0.000,     0.000,     0.000,     0.000,1
   104,'1 ',1,   1,  13,     0.000,     0.000,     0.000,     0.000,     0.000,     0.000,1
   105,'1 ',1,   1,  13,     0.000,     0.000,     0.000,     0.000,     0.000,     0.000,1
   106,'1 ',1,   1,  13,     0.000,     0.000,     0.000,     0.000,     0.000,     0.000,1
   107,'1 ',1,   1,  13,     0.000,     0.000,     0.000,     0.000,     0.000,     0.000,1
   108,'1 ',1,   1,  13,     0.000,     0.000,     0.000,     0.000,     0.000,     0.000,1
   109,'1 ',1,   1,  13,     0.000,     0.000,     0.000,     0.000,     0.000,     0.000,1
   110,'1 ',1,   1,  13,     0.000,     0.000,     0.000,     0.000,     0.000,     0.000,1
   111,'1 ',1,   1,  13,     0.000,     0.000,     0.000,     0.000,     0.000,     0.000,1
   112,'1 ',1,   1,  13,     0.000,     0.000,     0.000,     0.000,     0.000,     0.000,1
   123,'1 ',1,   1,  13,     0.000,     0.000,     0.000,     0.000,     0.000,     0.000,1
   125,'1 ',1,   1,  13,     0.000,     0.000,     0.000,     0.000,     0.000,     0.000,1
   127,'1 ',1,   1,  13,     0.000,     0.000,     0.000,     0.000,     0.000,     0.000,1
   129,'1 ',1,   1,  13,     0.000,     0.000,     0.000,     0.000,     0.000,     0.000,1
   130,'1 ',1,   1,  13,     0.000,     0.000,     0.000,     0.000,     0.000,     0.000,1
   134,'1 ',1,   1,  13,     0.000,     0.000,     0.000,     0.000,     0.000,     0.000,1
   135,'1 ',1,   1,  13,     0.000,     0.000,     0.000,     0.000,     0.000,     0.000,1
   136,'1 ',1,   1,  13,     0.000,     0.000,     0.000,     0.000,     0.000,     0.000,1
   139,'1 ',1,   1,  13,     0.000,     0.000,     0.000,     0.000,     0.000,     0.000,1
   141,'1 ',1,   1,  13,     0.000,     0.000,     0.000,     0.000,     0.000,     0.000,1
   142,'1 ',1,   1,  13,     0.000,     0.000,     0.000,     0.000,     0.000,     0.000,1
   145,'1 ',1,   1,  13,     0.000,     0.000,     0.000,     0.000,     0.000,     0.000,1
   148,'1 ',1,   1,  13,     0.000,     0.000,     0.000,     0.000,     0.000,     0.000,1
   150,'1 ',1,   1,  13,     0.000,     0.000,     0.000,     0.000,     0.000,     0.000,1
   155,'1 ',1,   1,  13,     0.000,     0.000,     0.000,     0.000,     0.000,     0.000,1
   161,'1 ',1,   1,  13,     0.000,     0.000,     0.000,     0.000,     0.000,     0.000,1
   164,'1 ',1,   1,  13,     0.000,     0.000,     0.000,     0.000,     0.000,     0.000,1
   173,'1 ',1,   1,  13,     0.000,     0.000,     0.000,     0.000,     0.000,     0.000,1
   174,'1 ',1,   1,  13,     0.000,     0.000,     0.000,     0.000,     0.000,     0.000,1
   175,'1 ',1,   1,  13,     0.000,     0.000,     0.000,     0.000,     0.000,     0.000,1
   177,'1 ',1,   1,  13,     0.000,     0.000,     0.000,     0.000,     0.000,     0.000,1
   182,'1 ',1,   1,  13,     0.000,     0.000,     0.000,     0.000,     0.000,     0.000,1
   188,'1 ',1,   1,  13,     0.000,     0.000,     0.000,     0.000,     0.000,     0.000,1
   192,'1 ',1,   1,  13,     0.000,     0.000,     0.000,     0.000,     0.000,     0.000,1
   200,'1 ',1,   1,  13,     0.000,     0.000,     0.000,     0.000,     0.000,     0.000,1
   202,'1 ',1,   1,  13,     0.000,     0.000,     0.000,     0.000,     0.000,     0.000,1
   203,'1 ',1,   1,  13,     0.000,     0.000,     0.000,     0.000,     0.000,     0.000,1
   204,'1 ',1,   1,  13,     0.000,     0.000,     0.000,     0.000,     0.000,     0.000,1
   205,'1 ',1,   1,  13,     0.000,     0.000,     0.000,     0.000,     0.000,     0.000,1
   206,'1 ',1,   1,  13,     0.000,     0.000,     0.000,     0.000,     0.000,     0.000,1
   209,'1 ',1,   1,  13,     0.000,     0.000,     0.000,     0.000,     0.000,     0.000,1
   213,'1 ',1,   1,  13,     0.000,     0.000,     0.000,     0.000,     0.000,     0.000,1
   216,'1 ',1,   1,  13,     0.000,     0.000,     0.000,     0.000,     0.000,     0.000,1
   217,'1 ',1,   1,  13,     0.000,     0.000,     0.000,     0.000,     0.000,     0.000,1
   223,'1 ',1,   1,  13,     0.000,     0.000,     0.000,     0.000,     0.000,     0.000,1
   225,'1 ',1,   1,  13,     0.000,     0.000,     0.000,     0.000,     0.000,     0.000,1
   234,'1 ',1,   1,  13,     0.000,     0.000,     0.000,     0.000,     0.000,     0.000,1
   235,'1 ',1,   1,  13,     0.000,     0.000,     0.000,     0.000,     0.000,     0.000,1
   236,'1 ',1,   1,  13,     0.000,     0.000,     0.000,     0.000,     0.000,     0.000,1
   241,'1 ',1,   1,  13,     0.000,     0.000,     0.000,     0.000,     0.000,     0.000,1
   250,'1 ',1,   1,  13,     0.000,     0.000,     0.000,     0.000,     0.000,     0.000,1
   301,'1 ',1,   1,  13,     0.000,     0.000,     0.000,     0.000,     0.000,     0.000,1
   302,'1 ',1,   1,  13,     0.000,     0.000,     0.000,     0.000,     0.000,     0.000,1
   303,'1 ',1,   1,  13,     0.000,     0.000,     0.000,     0.000,     0.000,     0.000,1
   304,'1 ',1,   1,  13,     0.000,     0.000,     0.000,     0.000,     0.000,     0.000,1
   305,'1 ',1,   1,  13,     0.000,     0.000,     0.000,     0.000,     0.000,     0.000,1
   306,'1 ',1,   1,  13,     0.000,     0.000,     0.000,     0.000,     0.000,     0.000,1
   325,'1 ',1,   1,  13,     0.000,     0.000,     0.000,     0.000,     0.000,     0.000,1
   335,'1 ',1,   1,  13,     0.000,     0.000,     0.000,     0.000,     0.000,     0.000,1
   336,'1 ',1,   1,  13,     0.000,     0.000,     0.000,     0.000,     0.000,     0.000,1
   401,'1 ',1,   1,  13,     0.000,     0.000,     0.000,     0.000,     0.000,     0.000,1
   402,'1 ',1,   1,  13,     0.000,     0.000,     0.000,     0.000,     0.000,     0.000,1
   403,'1 ',1,   1,  13,     0.000,     0.000,     0.000,     0.000,     0.000,     0.000,1
   404,'1 ',1,   1,  13,     0.000,     0.000,     0.000,     0.000,     0.000,     0.000,1
   405,'1 ',1,   1,  13,     0.000,     0.000,     0.000,     0.000,     0.000,     0.000,1
   407,'1 ',1,   1,  13,     0.000,     0.000,     0.000,     0.000,     0.000,     0.000,1
   415,'1 ',1,   1,  13,     0.000,     0.000,     0.000,     0.000,     0.000,     0.000,1
   418,'1 ',1,   1,  13,     0.000,     0.000,     0.000,     0.000,     0.000,     0.000,1
   422,'1 ',1,   1,  13,     0.000,     0.000,     0.000,     0.000,     0.000,     0.000,1
   425,'1 ',1,   1,  13,     0.000,     0.000,     0.000,     0.000,     0.000,     0.000,1
   430,'1 ',1,   1,  13,     0.000,     0.000,     0.000,     0.000,     0.000,     0.000,1
   431,'1 ',1,   1,  13,     0.000,     0.000,     0.000,     0.000,     0.000,     0.000,1
   435,'1 ',1,   1,  13,     0.000,     0.000,     0.000,     0.000,     0.000,     0.000,1
   436,'1 ',1,   1,  13,     0.000,     0.000,     0.000,     0.000,     0.000,     0.000,1
   440,'1 ',1,   1,  13,     0.000,     0.000,     0.000,     0.000,     0.000,     0.000,1
   443,'1 ',1,   1,  13,     0.000,     0.000,     0.000,     0.000,     0.000,     0.000,1
   493,'1 ',1,   1,  13,     0.000,     0.000,     0.000,     0.000,     0.000,     0.000,1
   501,'1 ',1,   1,  13,     0.000,     0.000,     0.000,     0.000,     0.000,     0.000,1
   502,'1 ',1,   1,  13,     0.000,     0.000,     0.000,     0.000,     0.000,     0.000,1
   503,'1 ',1,   1,  13,     0.000,     0.000,     0.000,     0.000,     0.000,     0.000,1
   504,'1 ',1,   1,  13,     0.000,     0.000,     0.000,     0.000,     0.000,     0.000,1
   511,'1 ',1,   1,  13,     0.000,     0.000,     0.000,     0.000,     0.000,     0.000,1
   534,'1 ',1,   1,  13,     0.000,     0.000,     0.000,     0.000,     0.000,     0.000,1
   602,'1 ',1,   1,  13,     0.000,     0.000,     0.000,     0.000,     0.000,     0.000,1
   613,'1 ',1,   1,  13,     0.000,     0.000,     0.000,     0.000,     0.000,     0.000,1
   617,'1 ',1,   1,  13,     0.000,     0.000,     0.000,     0.000,     0.000,     0.000,1
   623,'1 ',1,   1,  13,     0.000,     0.000,     0.000,     0.000,     0.000,     0.000,1
   629,'1 ',1,   1,  13,     0.000,     0.000,     0.000,     0.000,     0.000,     0.000,1
   636,'1 ',1,   1,  13,     0.000,     0.000,     0.000,     0.000,     0.000,     0.000,1
   650,'1 ',1,   1,  13,     0.000,     0.000,     0.000,     0.000,     0.000,     0.000,1
   655,'1 ',1,   1,  13,     0.000,     0.000,     0.000,     0.000,     0.000,     0.000,1
   671,'1 ',1,   1,  13,     0.000,     0.000,     0.000,     0.000,     0.000,     0.000,1
   723,'1 ',1,   1,  13,     0.000,     0.000,     0.000,     0.000,     0.000,     0.000,1
   729,'1 ',1,   1,  13,     0.000,     0.000,     0.000,     0.000,     0.000,     0.000,1
   750,'1 ',1,   1,  13,     0.000,     0.000,     0.000,     0.000,     0.000,     0.000,1
   803,'1 ',1,   1,  13,     0.000,     0.000,     0.000,     0.000,     0.000,     0.000,1
   804,'1 ',1,   1,  13,     0.000,     0.000,     0.000,     0.000,     0.000,     0.000,1
   806,'1 ',1,   1,  13,     0.000,     0.000,     0.000,     0.000,     0.000,     0.000,1
   809,'1 ',1,   1,  13,     0.000,     0.000,     0.000,     0.000,     0.000,     0.000,1
   812,'1 ',1,   1,  13,     0.000,     0.000,     0.000,     0.000,     0.000,     0.000,1
   813,'1 ',1,   1,  13,     0.000,     0.000,     0.000,     0.000,     0.000,     0.000,1
   816,'1 ',1,   1,  13,     0.000,     0.000,     0.000,     0.000,     0.000,     0.000,1
   817,'1 ',1,   1,  13,     0.000,     0.000,     0.000,     0.000,     0.000,     0.000,1
   819,'1 ',1,   1,  13,     0.000,     0.000,     0.000,     0.000,     0.000,     0.000,1
   823,'1 ',1,   1,  13,     0.000,     0.000,     0.000,     0.000,     0.000,     0.000,1
   826,'1 ',1,   1,  13,     0.000,     0.000,     0.000,     0.000,     0.000,     0.000,1
   827,'1 ',1,   1,  13,     0.000,     0.000,     0.000,     0.000,     0.000,     0.000,1
   831,'1 ',1,   1,  13,     0.000,     0.000,     0.000,     0.000,     0.000,     0.000,1
   834,'1 ',1,   1,  13,     0.000,     0.000,     0.000,     0.000,     0.000,     0.000,1
   838,'1 ',1,   1,  13,     0.000,     0.000,     0.000,     0.000,     0.000,     0.000,1
   840,'1 ',1,   1,  13,     0.000,     0.000,     0.000,     0.000,     0.000,     0.000,1
   844,'1 ',1,   1,  13,     0.000,     0.000,     0.000,     0.000,     0.000,     0.000,1
   845,'1 ',1,   1,  13,     0.000,     0.000,     0.000,     0.000,     0.000,     0.000,1
   846,'1 ',1,   1,  13,     0.000,     0.000,     0.000,     0.000,     0.000,     0.000,1
   848,'1 ',1,   1,  13,     0.000,     0.000,     0.000,     0.000,     0.000,     0.000,1
   849,'1 ',1,   1,  13,     0.000,     0.000,     0.000,     0.000,     0.000,     0.000,1
   850,'1 ',1,   1,  13,     0.000,     0.000,     0.000,     0.000,     0.000,     0.000,1
   858,'1 ',1,   1,  13,     0.000,     0.000,     0.000,     0.000,     0.000,     0.000,1
   892,'1 ',1,   1,  13,     0.000,     0.000,     0.000,     0.000,     0.000,     0.000,1
   893,'1 ',1,   1,  13,     0.000,     0.000,     0.000,     0.000,     0.000,     0.000,1
   898,'1 ',1,   1,  13,     0.000,     0.000,     0.000,     0.000,     0.000,     0.000,1
   917,'1 ',1,   1,  13,     0.000,     0.000,     0.000,     0.000,     0.000,     0.000,1
   971,'1 ',1,   1,  13,     0.000,     0.000,     0.000,     0.000,     0.000,     0.000,1
  1203,'1 ',1,   1,  13,     0.000,     0.000,     0.000,     0.000,     0.000,     0.000,1
  1230,'1 ',1,   1,  13,     0.000,     0.000,     0.000,     0.000,     0.000,     0.000,1
  2030,'1 ',1,   1,  13,     0.000,     0.000,     0.000,     0.000,     0.000,     0.000,1
  2060,'1 ',1,   1,  13,     0.000,     0.000,     0.000,     0.000,     0.000,     0.000,1
  2061,'1 ',1,   1,  13,     0.000,     0.000,     0.000,     0.000,     0.000,     0.000,1
  2062,'1 ',1,   1,  13,     0.000,     0.000,     0.000,     0.000,     0.000,     0.000,1
  2090,'1 ',1,   1,  13,     0.000,     0.000,     0.000,     0.000,     0.000,     0.000,1
  2091,'1 ',1,   1,  13,     0.000,     0.000,     0.000,     0.000,     0.000,     0.000,1
  4002,'1 ',1,   1,  13,     0.000,     0.000,     0.000,     0.000,     0.000,     0.000,1
  4250,'1 ',1,   1,  13,     0.000,     0.000,     0.000,     0.000,     0.000,     0.000,1
  4430,'1 ',1,   1,  13,     0.000,     0.000,     0.000,     0.000,     0.000,     0.000,1
  5340,'1 ',1,   1,  13,     0.000,     0.000,     0.000,     0.000,     0.000,     0.000,1
  7290,'1 ',1,   1,  13,     0.000,     0.000,     0.000,     0.000,     0.000,     0.000,1
  8340,'1 ',1,   1,  13,     0.000,     0.000,     0.000,     0.000,     0.000,     0.000,1
 12031,'1 ',1,   1,  13,     0.000,     0.000,     0.000,     0.000,     0.000,     0.000,1
 12032,'1 ',1,   1,  13,     0.000,     0.000,     0.000,     0.000,     0.000,     0.000,1
 12033,'1 ',1,   1,  13,     0.000,     0.000,     0.000,     0.000,     0.000,     0.000,1
 12034,'1 ',1,   1,  13,     0.000,     0.000,     0.000,     0.000,     0.000,     0.000,1
 12035,'1 ',1,   1,  13,     0.000,     0.000,     0.000,     0.000,     0.000,     0.000,1
 12036,'1 ',1,   1,  13,     0.000,     0.000,     0.000,     0.000,     0.000,     0.000,1
 12037,'1 ',1,   1,  13,     0.000,     0.000,     0.000,     0.000,     0.000,     0.000,1
 12038,'1 ',1,   1,  13,     0.000,     0.000,     0.000,     0.000,     0.000,     0.000,1
 90971,'1 ',1,   1,  13,     0.000,     0.000,     0.000,     0.000,     0.000,     0.000,1
 92031,'1 ',1,   1,  13,     0.000,     0.000,     0.000,     0.000,     0.000,     0.000,1
 92032,'1 ',1,   1,  13,     0.000,     0.000,     0.000,     0.000,     0.000,     0.000,1
 92061,'1 ',1,   1,  13,     0.000,     0.000,     0.000,     0.000,     0.000,     0.000,1
 93101,'1 ',1,   1,  13,     0.000,     0.000,     0.000,     0.000,     0.000,     0.000,1
 93102,'1 ',1,   1,  13,     0.000,     0.000,     0.000,     0.000,     0.000,     0.000,1
 95000,'1 ',1,   1,  13,     0.000,     0.000,     0.000,     0.000,     0.000,     0.000,1
 96000,'1 ',1,   1,  13,     0.000,     0.000,     0.000,     0.000,     0.000,     0.000,1
 0 /End of Load data, Begin Fixed shunt data
 12034,'1 ',1,     0.000,     5.600
 0 /End of Fixed shunt data, Begin Generator data
 0 /End of Generator data, Begin Branch data
     3,    33,'1 ', 8.00000E-4, 2.70000E-3,   0.00000,   28.50,   32.67,    0.00,  0.00000,  0.00000,  0.00000,  0.00000,1,1,   0.00,   1,1.0000
     3,   111,'1 ', 2.11000E-3, 7.33000E-3,   0.00000,   28.50,   32.67,    0.00,  0.00000,  0.00000,  0.00000,  0.00000,1,1,   0.00,   1,1.0000
     3,   200,'1 ', 9.50000E-3, 3.61000E-2,   0.00000,   28.50,   32.67,    0.00,  0.00000,  0.00000,  0.00000,  0.00000,1,1,   0.00,   1,1.0000
     4,   401,'1 ', 5.50000E-4, 1.31000E-3,   0.00246,   61.50,   71.10,    0.00,  0.00000,  0.00000,  0.00000,  0.00000,1,1,   0.00,   1,1.0000
     4,   402,'1 ', 5.10000E-4, 1.20000E-3,   0.00225,   61.50,   71.10,    0.00,  0.00000,  0.00000,  0.00000,  0.00000,1,1,   0.00,   1,1.0000
     5,     8,'1 ', 1.10000E-3, 1.40000E-3,   0.00000,   24.70,   24.70,    0.00,  0.00000,  0.00000,  0.00000,  0.00000,1,1,   0.00,   1,1.0000
     7,    43,'1 ', 9.70000E-3, 2.11000E-2,   0.00000,   20.52,   23.70,    0.00,  0.00000,  0.00000,  0.00000,  0.00000,1,1,   0.00,   1,1.0000
     7,   858,'1 ', 8.00000E-3, 1.78000E-2,   0.00000,   20.52,   23.70,    0.00,  0.00000,  0.00000,  0.00000,  0.00000,1,1,   0.00,   1,1.0000
     8,   202,'1 ', 5.22000E-3, 1.85500E-2,   0.00051,   28.50,   32.70,    0.00,  0.00000,  0.00000,  0.00000,  0.00000,1,1,   0.00,   1,1.0000
     8,   840,'1 ', 8.70000E-4, 3.10000E-3,   0.00009,   28.50,   32.70,    0.00,  0.00000,  0.00000,  0.00000,  0.00000,1,1,   0.00,   1,1.0000
     9,    42,'1 ', 9.31000E-2, 1.05100E-1,   0.00200,   11.80,   13.35,    0.00,  0.00000,  0.00000,  0.00000,  0.00000,1,1,   0.00,   1,1.0000
     9,    74,'1 ', 6.90000E-3, 5.85000E-3,   0.00011,    9.76,   11.15,    0.00,  0.00000,  0.00000,  0.00000,  0.00000,1,1,   0.00,   1,1.0000
    12,    15,'1 ', 5.50000E-3, 1.19000E-2,   0.00000,   20.50,   23.70,    0.00,  0.00000,  0.00000,  0.00000,  0.00000,1,1,   0.00,   1,1.0000
    12,   812,'1 ', 1.49000E-2, 3.29000E-2,   0.00000,   20.50,   23.70,    0.00,  0.00000,  0.00000,  0.00000,  0.00000,1,1,   0.00,   1,1.0000
    13,   130,'1 ',-0.00000E+0, 1.00000E-4,   0.00000,    0.00,    0.00,    0.00,  0.00000,  0.00000,  0.00000,  0.00000,1,2,   0.00,   1,1.0000
    15,   831,'1 ', 1.10000E-2, 2.40000E-2,   0.00000,   20.50,   23.70,    0.00,  0.00000,  0.00000,  0.00000,  0.00000,1,1,   0.00,   1,1.0000
    16,   816,'1 ', 4.00000E-3, 4.70000E-3,   0.00010,   12.35,   14.14,    0.00,  0.00000,  0.00000,  0.00000,  0.00000,1,1,   0.00,   1,1.0000
    16,   898,'1 ', 9.28000E-3, 1.97900E-2,   0.00000,   20.50,   23.70,    0.00,  0.00000,  0.00000,  0.00000,  0.00000,1,1,   0.00,   1,1.0000
    18,    22,'1 ', 4.40000E-3, 3.50000E-3,   0.00000,    8.80,   10.16,    0.00,  0.00000,  0.00000,  0.00000,  0.00000,1,1,   0.00,   1,1.0000
    18,    30,'1 ', 4.80000E-3, 5.40000E-3,   0.00000,    8.80,   10.20,    0.00,  0.00000,  0.00000,  0.00000,  0.00000,1,1,   0.00,   1,1.0000
    22,   671,'1 ', 9.00000E-3, 7.60000E-3,   0.00000,    8.80,   10.20,    0.00,  0.00000,  0.00000,  0.00000,  0.00000,0,1,   0.00,   1,1.0000
    23,   223,'1 ',-0.00000E+0, 1.00000E-4,   0.00000,   61.50,   71.10,    0.00,  0.00000,  0.00000,  0.00000,  0.00000,0,2,   0.00,   1,1.0000
    23,   823,'1 ', 7.00000E-4, 1.60000E-3,   0.00000,   61.50,   71.10,    0.00,  0.00000,  0.00000,  0.00000,  0.00000,1,1,   0.00,   1,1.0000
    25,    35,'1 ', 3.10000E-3, 7.40000E-3,   0.01330,   61.50,   71.10,    0.00,  0.00000,  0.00000,  0.00000,  0.00000,1,1,   0.00,   1,1.0000
    25,  1203,'1 ', 7.08526E-4, 1.75405E-3,   0.00306,   61.50,   71.10,    0.00,  0.00000,  0.00000,  0.00000,  0.00000,1,1,   0.00,   1,1.0000
    29,   629,'1 ',-0.00000E+0, 1.00000E-4,   0.00000,   61.50,   71.10,    0.00,  0.00000,  0.00000,  0.00000,  0.00000,0,2,   0.00,   1,1.0000
    29,   850,'1 ', 1.80000E-3, 4.20000E-3,   0.00000,   61.50,   71.10,    0.00,  0.00000,  0.00000,  0.00000,  0.00000,1,1,   0.00,   1,1.0000
    30,   858,'1 ', 5.80000E-3, 1.26000E-2,   0.00000,   20.50,   23.70,    0.00,  0.00000,  0.00000,  0.00000,  0.00000,1,1,   0.00,   1,1.0000
    31,   831,'1 ', 6.40000E-3, 1.47000E-2,   0.00000,   20.50,   23.70,    0.00,  0.00000,  0.00000,  0.00000,  0.00000,1,1,   0.00,   1,1.0000
    33,   858,'1 ', 1.70000E-3, 5.70000E-3,   0.00000,   28.50,   32.67,    0.00,  0.00000,  0.00000,  0.00000,  0.00000,1,1,   0.00,   1,1.0000
    34,    84,'1 ', 7.50000E-4, 1.92000E-3,   0.00370,   61.50,   71.10,    0.00,  0.00000,  0.00000,  0.00000,  0.00000,1,2,   0.00,   1,1.0000
    34,    97,'1 ', 7.21000E-3, 1.85400E-2,   0.03032,   61.50,   71.10,    0.00,  0.00000,  0.00000,  0.00000,  0.00000,1,2,   0.00,   1,1.0000
    34,   206,'1 ', 7.01760E-3, 1.76936E-2,   0.02992,   61.50,   71.10,    0.00,  0.00000,  0.00000,  0.00000,  0.00000,1,2,   0.00,   1,1.0000
    34,   623,'1 ', 2.50000E-3, 5.90000E-3,   0.01070,   61.50,   71.10,    0.00,  0.00000,  0.00000,  0.00000,  0.00000,1,1,   0.00,   1,1.0000
    35,    39,'1 ', 3.91000E-3, 9.26000E-3,   0.01763,   61.50,   71.10,    0.00,  0.00000,  0.00000,  0.00000,  0.00000,1,1,   0.00,   1,1.0000
    39,    84,'1 ', 5.45000E-3, 2.20000E-2,   0.04644,   89.00,  103.00,    0.00,  0.00000,  0.00000,  0.00000,  0.00000,1,1,   0.00,   1,1.0000
    39,    97,'1 ', 3.34000E-3, 8.61000E-3,   0.01408,   61.50,   71.10,    0.00,  0.00000,  0.00000,  0.00000,  0.00000,1,1,   0.00,   1,1.0000
    39,   206,'1 ', 3.30240E-3, 8.32640E-3,   0.01408,   61.50,   71.10,    0.00,  0.00000,  0.00000,  0.00000,  0.00000,1,1,   0.00,   1,1.0000
    39,   402,'1 ', 5.30000E-3, 1.25800E-2,   0.02343,   61.50,   71.10,    0.00,  0.00000,  0.00000,  0.00000,  0.00000,0,1,   0.00,   1,1.0000
    39,   636,'1 ', 4.41000E-3, 1.04600E-2,   0.01938,   61.50,   71.10,    0.00,  0.00000,  0.00000,  0.00000,  0.00000,1,1,   0.00,   1,1.0000
    39,   655,'1 ', 5.29000E-3, 1.90000E-2,   0.06000,   85.45,   98.00,    0.00,  0.00000,  0.00000,  0.00000,  0.00000,1,1,   0.00,   1,1.0000
    39,  2090,'1 ', 3.81600E-3, 9.05760E-3,   0.01687,   61.50,   71.10,    0.00,  0.00000,  0.00000,  0.00000,  0.00000,0,1,   0.00,   1,1.0000
    39, 93101,'1 ', 3.24360E-3, 7.69896E-3,   0.01434,   61.50,   71.10,    0.00,  0.00000,  0.00000,  0.00000,  0.00000,1,1,   0.00,   1,1.0000
    40,   840,'1 ', 8.79000E-3, 9.41000E-3,   0.00000,   13.74,   15.18,    0.00,  0.00000,  0.00000,  0.00000,  0.00000,1,1,   0.00,   1,1.0000
    41,    42,'1 ', 1.76400E-1, 1.88300E-1,   0.00380,   11.80,   13.35,    0.00,  0.00000,  0.00000,  0.00000,  0.00000,1,1,   0.00,   1,1.0000
    48,    77,'1 ', 9.90000E-4, 1.04000E-3,   0.00000,   10.36,   11.75,    0.00,  0.00000,  0.00000,  0.00000,  0.00000,1,2,   0.00,   1,1.0000
    48,   838,'1 ', 1.36000E-3, 1.43000E-3,   0.00000,   10.36,   11.80,    0.00,  0.00000,  0.00000,  0.00000,  0.00000,1,1,   0.00,   1,1.0000
    50,   250,'1 ',-0.00000E+0, 1.00000E-4,   0.00000,   61.50,   71.10,    0.00,  0.00000,  0.00000,  0.00000,  0.00000,0,2,   0.00,   1,1.0000
    50,   850,'1 ', 4.00000E-4, 1.00000E-3,   0.00000,   61.50,   71.10,    0.00,  0.00000,  0.00000,  0.00000,  0.00000,1,1,   0.00,   1,1.0000
    61,   813,'1 ', 1.91700E-2, 2.37100E-2,   0.00051,    4.80,    5.58,    0.00,  0.00000,  0.00000,  0.00000,  0.00000,1,2,   0.00,   1,1.0000
    64,    75,'1 ', 1.33000E-2, 1.76600E-2,   0.00038,   12.30,   14.10,    0.00,  0.00000,  0.00000,  0.00000,  0.00000,1,2,   0.00,   1,1.0000
    64,   826,'1 ', 1.55200E-2, 2.21800E-2,   0.00051,   12.30,   14.10,    0.00,  0.00000,  0.00000,  0.00000,  0.00000,1,1,   0.00,   1,1.0000
    73,   816,'1 ', 1.55900E-2, 5.57610E-2,   0.01506,   28.50,   32.70,    0.00,  0.00000,  0.00000,  0.00000,  0.00000,0,1,   0.00,   1,1.0000
    73,   893,'1 ', 3.57600E-3, 1.27910E-2,   0.00035,   28.50,   32.70,    0.00,  0.00000,  0.00000,  0.00000,  0.00000,1,1,   0.00,   1,1.0000
    74,   849,'1 ', 6.21000E-2, 5.26500E-2,   0.00099,    9.76,   11.15,    0.00,  0.00000,  0.00000,  0.00000,  0.00000,1,1,   0.00,   1,1.0000
    75,   848,'1 ', 2.76000E-2, 2.91000E-2,   0.00000,   13.74,   15.18,    0.00,  0.00000,  0.00000,  0.00000,  0.00000,1,1,   0.00,   1,1.0000
    82,    88,'1 ', 2.54000E-3, 2.83000E-3,   0.00008,   13.70,   16.10,    0.00,  0.00000,  0.00000,  0.00000,  0.00000,1,2,   0.00,   1,1.0000
    83,   613,'1 ', 2.28000E-3, 5.30000E-3,   0.02000,   61.50,   71.10,    0.00,  0.00000,  0.00000,  0.00000,  0.00000,1,1,   0.00,   1,1.0000
    83,   655,'1 ', 4.90000E-4, 1.75000E-3,   0.00381,   85.45,   98.00,    0.00,  0.00000,  0.00000,  0.00000,  0.00000,1,2,   0.00,   1,1.0000
    83,  1203,'1 ', 5.24147E-3, 1.29760E-2,   0.02263,   61.50,   71.10,    0.00,  0.00000,  0.00000,  0.00000,  0.00000,1,2,   0.00,   1,1.0000
    84,   823,'1 ', 2.80000E-3, 6.40000E-3,   0.01300,   61.50,   71.10,    0.00,  0.00000,  0.00000,  0.00000,  0.00000,1,1,   0.00,   1,1.0000
    88,   827,'1 ', 2.11000E-3, 2.17000E-3,   0.00006,    9.80,   11.20,    0.00,  0.00000,  0.00000,  0.00000,  0.00000,1,2,   0.00,   1,1.0000
    92,   806,'1 ', 6.71000E-3, 2.51700E-2,   0.00076,   28.50,   32.70,    0.00,  0.00000,  0.00000,  0.00000,  0.00000,1,1,   0.00,   1,1.0000
    92,   892,'1 ', 3.23000E-3, 1.21000E-2,   0.00036,   28.50,   32.70,    0.00,  0.00000,  0.00000,  0.00000,  0.00000,1,1,   0.00,   1,1.0000
    93,   893,'1 ', 1.62000E-3, 1.40000E-3,   0.00003,    9.80,   11.20,    0.00,  0.00000,  0.00000,  0.00000,  0.00000,1,2,   0.00,   1,1.0000
   111,   236,'1 ', 2.11000E-3, 7.33000E-3,   0.00000,   28.50,   32.67,    0.00,  0.00000,  0.00000,  0.00000,  0.00000,1,1,   0.00,   1,1.0000
   111,   671,'1 ', 2.28483E-3, 3.27953E-3,   0.00047,   14.78,   17.49,    0.00,  0.00000,  0.00000,  0.00000,  0.00000,1,1,   0.00,   1,1.0000
   123,  1230,'1 ',-0.00000E+0, 1.00000E-4,   0.00000,    0.00,    0.00,    0.00,  0.00000,  0.00000,  0.00000,  0.00000,1,2,   0.00,   1,1.0000
   145,   813,'1 ', 6.88300E-2, 4.85200E-2,   0.00000,    4.80,    5.58,    0.00,  0.00000,  0.00000,  0.00000,  0.00000,1,1,   0.00,   1,1.0000
   200,   202,'1 ', 7.90000E-3, 1.74300E-2,   0.00000,   19.10,   22.10,    0.00,  0.00000,  0.00000,  0.00000,  0.00000,1,1,   0.00,   1,1.0000
   200,   202,'2 ', 7.90000E-3, 1.74300E-2,   0.00000,   19.10,   22.10,    0.00,  0.00000,  0.00000,  0.00000,  0.00000,1,1,   0.00,   1,1.0000
   200,   202,'3 ', 4.24000E-3, 1.46200E-2,   0.00000,   28.50,   32.67,    0.00,  0.00000,  0.00000,  0.00000,  0.00000,1,1,   0.00,   1,1.0000
   202,   806,'1 ', 6.96000E-3, 2.61400E-2,   0.00079,   28.50,   32.70,    0.00,  0.00000,  0.00000,  0.00000,  0.00000,1,1,   0.00,   1,1.0000
   202,   819,'1 ', 1.17900E-2, 1.98700E-2,   0.00047,   15.30,   15.30,    0.00,  0.00000,  0.00000,  0.00000,  0.00000,1,1,   0.00,   1,1.0000
   202,  4002,'1 ', 4.18000E-3, 1.68500E-2,   0.00044,   28.48,   32.67,    0.00,  0.00000,  0.00000,  0.00000,  0.00000,1,1,   1.00,   1,1.0000
   203,  2030,'1 ',-0.00000E+0, 1.00000E-4,   0.00000,    0.00,    0.00,    0.00,  0.00000,  0.00000,  0.00000,  0.00000,1,2,   0.00,   1,1.0000
   213,   813,'1 ', 6.88300E-2, 4.85200E-2,   0.00000,    4.80,    5.58,    0.00,  0.00000,  0.00000,  0.00000,  0.00000,1,2,   0.00,   1,1.0000
   217,   812,'1 ', 1.71000E-2, 3.71000E-2,   0.00000,   20.50,   23.70,    0.00,  0.00000,  0.00000,  0.00000,  0.00000,1,1,   0.00,   1,1.0000
   223,   623,'1 ',-0.00000E+0, 1.00000E-4,   0.00000,   61.50,   71.10,    0.00,  0.00000,  0.00000,  0.00000,  0.00000,1,2,   0.00,   1,1.0000
   235, 95000,'1 ',-0.00000E+0, 1.00000E-4,   0.00000,    0.00,    0.00,    0.00,  0.00000,  0.00000,  0.00000,  0.00000,1,2,   0.00,   1,1.0000
   236,   840,'1 ', 8.12000E-3, 2.90000E-2,   0.00081,   28.50,   32.70,    0.00,  0.00000,  0.00000,  0.00000,  0.00000,1,1,   0.00,   1,1.0000
   250,   650,'1 ',-0.00000E+0, 1.00000E-4,   0.00000,   61.50,   71.10,    0.00,  0.00000,  0.00000,  0.00000,  0.00000,1,2,   0.00,   1,1.0000
   401,   602,'1 ', 2.40000E-4, 8.70000E-4,   0.00178,   85.45,   98.00,    0.00,  0.00000,  0.00000,  0.00000,  0.00000,1,1,   0.00,   1,1.0000
   402,  2090,'1 ', 1.48400E-3, 3.52240E-3,   0.00656,   61.50,   71.10,    0.00,  0.00000,  0.00000,  0.00000,  0.00000,1,2,   0.00,   1,1.0000
   425,  4250,'1 ',-0.00000E+0, 1.00000E-4,   0.00000,    0.00,    0.00,    0.00,  0.00000,  0.00000,  0.00000,  0.00000,1,2,   0.00,   1,1.0000
   443,  4430,'1 ',-0.00000E+0, 1.00000E-4,   0.00000,    0.00,    0.00,    0.00,  0.00000,  0.00000,  0.00000,  0.00000,1,2,   0.00,   1,1.0000
   534,  5340,'1 ',-0.00000E+0, 1.00000E-4,   0.00000,    0.00,    0.00,    0.00,  0.00000,  0.00000,  0.00000,  0.00000,1,2,   0.00,   1,1.0000
   602,   617,'1 ', 6.20000E-3, 1.45000E-2,   0.02770,   61.50,   71.10,    0.00,  0.00000,  0.00000,  0.00000,  0.00000,1,1,   0.00,   1,1.0000
   613,   617,'1 ', 5.82000E-3, 1.32500E-2,   0.02730,   61.50,   71.10,    0.00,  0.00000,  0.00000,  0.00000,  0.00000,1,1,   0.00,   1,1.0000
   623,   650,'1 ', 1.90000E-3, 4.50000E-3,   0.00780,   61.50,   71.10,    0.00,  0.00000,  0.00000,  0.00000,  0.00000,1,1,   0.00,   1,1.0000
   629,   650,'1 ', 1.50000E-3, 3.60000E-3,   0.00620,   61.50,   71.10,    0.00,  0.00000,  0.00000,  0.00000,  0.00000,1,1,   0.00,   1,1.0000
   671,   838,'1 ', 3.44000E-2, 2.70000E-2,   0.00000,    8.80,   10.16,    0.00,  0.00000,  0.00000,  0.00000,  0.00000,1,2,   0.00,   1,1.0000
   729,  7290,'1 ',-0.00000E+0, 1.00000E-4,   0.00000,    0.00,    0.00,    0.00,  0.00000,  0.00000,  0.00000,  0.00000,1,2,   0.00,   1,1.0000
   809,   816,'1 ', 6.17000E-2, 5.49000E-2,   0.00105,    9.76,   11.15,    0.00,  0.00000,  0.00000,  0.00000,  0.00000,1,1,   0.00,   1,1.0000
   819,   826,'1 ', 3.89000E-3, 9.55000E-3,   0.00020,   20.50,   23.70,    0.00,  0.00000,  0.00000,  0.00000,  0.00000,1,1,   0.00,   1,1.0000
   823,   850,'1 ', 9.00000E-4, 2.20000E-3,   0.00380,   61.50,   71.10,    0.00,  0.00000,  0.00000,  0.00000,  0.00000,1,1,   0.00,   1,1.0000
   826,   827,'1 ', 3.97900E-2, 2.44200E-2,   0.00043,    6.80,    7.60,    0.00,  0.00000,  0.00000,  0.00000,  0.00000,1,1,   0.00,   1,1.0000
   831,   898,'1 ', 3.52000E-3, 7.51000E-3,   0.00000,   20.50,   23.70,    0.00,  0.00000,  0.00000,  0.00000,  0.00000,1,2,   0.00,   1,1.0000
   834,  8340,'1 ',-0.00000E+0, 1.00000E-4,   0.00000,    0.00,    0.00,    0.00,  0.00000,  0.00000,  0.00000,  0.00000,1,2,   0.00,   1,1.0000
   838,   848,'1 ', 2.51000E-2, 1.76000E-2,   0.00000,   10.36,   11.75,    0.00,  0.00000,  0.00000,  0.00000,  0.00000,0,1,   0.00,   1,1.0000
   892,   893,'1 ', 2.21800E-3, 7.93200E-3,   0.00021,   28.50,   32.70,    0.00,  0.00000,  0.00000,  0.00000,  0.00000,1,2,   0.00,   1,1.0000
  2060,  2061,'1 ', 6.27946E-4, 2.80589E-4,   0.03576,   61.50,   71.10,    0.00,  0.00000,  0.00000,  0.00000,  0.00000,1,1,   0.00,   1,1.0000
  2090, 93102,'1 ', 5.72400E-4, 1.35864E-3,   0.00253,   61.50,   71.10,    0.00,  0.00000,  0.00000,  0.00000,  0.00000,1,2,   0.00,   1,1.0000
  8340, 96000,'1 ',-0.00000E+0, 1.00000E-4,   0.00000,    0.00,    0.00,    0.00,  0.00000,  0.00000,  0.00000,  0.00000,1,2,   0.00,   1,1.0000
 12032, 12034,'1 ',-0.00000E+0, 1.00000E-4,   0.00000,    0.00,    0.00,    0.00,  0.00000,  0.00000,  0.00000,  0.00000,1,1,   0.00,   1,1.0000
 12034, 12035,'1 ', 2.01238E-2, 4.98522E-2,   0.00659,   31.79,   31.79,    0.00,  0.00000,  0.00000,  0.00000,  0.00000,1,2,   8.23,   1,1.0000
 12034, 12037,'1 ', 2.02090E-2, 5.00632E-2,   0.00661,   31.79,   31.79,    0.00,  0.00000,  0.00000,  0.00000,  0.00000,1,2,   8.27,   1,1.0000
 12035, 12036,'1 ', 2.64500E-3, 4.92400E-3,   0.00641,   31.79,   31.79,    0.00,  0.00000,  0.00000,  0.00000,  0.00000,1,2,   0.77,   1,1.0000
 12035, 12037,'1 ',-0.00000E+0, 1.00000E-4,   0.00000,   31.79,   31.79,    0.00,  0.00000,  0.00000,  0.00000,  0.00000,0,2,   0.77,   1,1.0000
 12037, 12038,'1 ', 3.37300E-3, 5.47000E-3,   0.01569,   31.79,   31.79,    0.00,  0.00000,  0.00000,  0.00000,  0.00000,1,2,   0.73,   1,1.0000
 93101, 93102,'1 ',-0.00000E+0, 1.00000E-4,   0.00000,    0.00,    0.00,    0.00,  0.00000,  0.00000,  0.00000,  0.00000,1,1,   0.00,   1,1.0000
 0 /End of Branch data, Begin Transformer data
   403,     3,     0,'1 ',1,1,1, 0.00000E+0, 0.00000E+0,2,'            ',1,   1,1.0000,   0,1.0000,   0,1.0000,   0,1.0000,'YNd1        '
 3.13481E-2, 3.13110E-1,    10.00
1.03473,   0.000,   0.000,     1.50,     1.50,     0.00, 1,    403, 1.10979, 1.03473, 1.01500, 0.98500,  15, 0, 0.00000, 0.00000,  0.000
1.00000,   0.000
   404,     3,     0,'1 ',3,2,2, 2.46900E+3, 1.00000E-3,2,'            ',1,   1,1.0000,   0,1.0000,   0,1.0000,   0,1.0000,'YNd1        '
 6.20000E-3, 6.70000E-2,     2.50
1.00000,   4.160,   0.000,     1.50,     1.50,     0.00, 1,    404, 1.10000, 0.90000, 1.01500, 0.98500,  15, 0, 0.00000, 0.00000,  0.000
1.00000,  22.900
   405,     3,     0,'1 ',2,2,2, 6.74500E+3, 7.15000E-3,1,'TSF#3       ',1,   1,1.0000,   0,1.0000,   0,1.0000,   0,1.0000,'YNd1        '
 5.10000E-3, 9.31000E-2,    10.00
12.2719,  13.090,   0.000,    10.00,    12.50,     0.00, 1,    405,14.39900,11.78100, 1.01500, 0.98500,  33, 0, 0.00000, 0.00000,  0.000
22.9000,  22.900
   415,     3,     0,'1 ',1,1,1, 0.00000E+0, 0.00000E+0,2,'            ',1,   1,1.0000,   0,1.0000,   0,1.0000,   0,1.0000,'YNd1        '
 7.47423E-3, 1.20530E-1,    10.00
1.00380,   0.000,   0.000,     9.38,     9.38,     0.00, 1,    415, 1.15469, 0.94475, 1.01500, 0.98500,  33, 0, 0.00000, 0.00000,  0.000
1.00000,   0.000
   804,     4,     0,'1 ',1,1,1, 0.00000E+0, 0.00000E+0,2,'            ',1,   1,1.0000,   0,1.0000,   0,1.0000,   0,1.0000,'Dyn1        '
 1.47684E-3, 3.74500E-2,    10.00
0.93319,   0.000,   0.000,    29.86,    29.86,     0.00, 0,      0, 1.50000, 0.51000, 1.50000, 0.51000, 159, 0, 0.00000, 0.00000,  0.000
1.00000,   0.000
  4002,     4,     0,'1 ',1,1,1, 0.00000E+0, 0.00000E+0,2,'            ',1,   1,1.0000,   0,1.0000,   0,1.0000,   0,1.0000,'Dyn1        '
 2.34591E-3, 5.18600E-2,    10.00
1.02537,   0.000,   0.000,    20.00,    26.00,     0.00, 0,      0, 1.50000, 0.51000, 1.50000, 0.51000, 159, 0, 0.00000, 0.00000,  0.000
1.00000,   0.000
   511,     5,     0,'1 ',1,1,1, 0.00000E+0, 0.00000E+0,2,'            ',1,   1,1.0000,   0,1.0000,   0,1.0000,   0,1.0000,'Yd1         '
 2.23817E-2, 2.53970E-1,    10.00
0.99675,   0.000,   0.000,     3.15,     3.94,     0.00, 1,    511, 1.21825, 0.99675, 1.01500, 0.98500,  33, 0, 0.00000, 0.00000,  0.000
1.00000,   0.000
   511,     5,     0,'2 ',1,1,1, 0.00000E+0, 0.00000E+0,2,'            ',1,   1,1.0000,   0,1.0000,   0,1.0000,   0,1.0000,'Yd1         '
 2.23820E-2, 2.53970E-1,    10.00
0.99675,   0.000,   0.000,     3.15,     3.94,     0.00, 1,    511, 1.21825, 0.99675, 1.01500, 0.98500,  33, 0, 0.00000, 0.00000,  0.000
1.00000,   0.000
   407,     7,     0,'1 ',1,1,1, 0.00000E+0, 0.00000E+0,2,'            ',1,   1,1.0000,   0,1.0000,   0,1.0000,   0,1.0000,'YNd1        '
 2.94744E-2, 3.07100E-1,    10.00
0.99367,   0.000,   0.000,     2.00,     2.00,     0.00, 1,    407, 1.16590, 0.95392, 1.01500, 0.98500,  33, 0, 0.00000, 0.00000,  0.000
1.00000,   0.000
   803,     8,     0,'1 ',1,1,1, 0.00000E+0, 0.00000E+0,2,'            ',1,   1,1.0000,   0,1.0000,   0,1.0000,   0,1.0000,'YNd1        '
 7.37439E-3, 1.18920E-1,    10.00
1.02221,   0.000,   0.000,     9.37,     9.37,     0.00, 1,    803, 1.22387, 1.00135, 1.01500, 0.98500,  33, 0, 0.00000, 0.00000,  0.000
1.00000,   0.000
   844,     8,     0,'1 ',1,1,1, 0.00000E+0, 0.00000E+0,2,'            ',1,   1,1.0000,   0,1.0000,   0,1.0000,   0,1.0000,'YNd1        '
 2.04574E-2, 2.21850E-1,    10.00
0.98627,   0.000,   0.000,     2.50,     3.25,     0.00, 1,    844, 1.13453, 0.92825, 1.01500, 0.98500,  33, 0, 0.00000, 0.00000,  0.000
1.00000,   0.000
   845,     8,     0,'1 ',1,1,1, 0.00000E+0, 0.00000E+0,2,'            ',1,   1,1.0000,   0,1.0000,   0,1.0000,   0,1.0000,'YNd1        '
 2.04570E-2, 2.21850E-1,    10.00
0.98627,   0.000,   0.000,     2.50,     3.25,     0.00, 1,    845, 1.13453, 0.92825, 1.01500, 0.98500,  33, 0, 0.00000, 0.00000,  0.000
1.00000,   0.000
   846,     8,     0,'1 ',1,1,1, 0.00000E+0, 0.00000E+0,2,'            ',1,   1,1.0000,   0,1.0000,   0,1.0000,   0,1.0000,'YNd1        '
 2.04570E-2, 2.21850E-1,    10.00
0.98627,   0.000,   0.000,     2.50,     3.25,     0.00, 1,    846, 1.13453, 0.92825, 1.01500, 0.98500,  33, 0, 0.00000, 0.00000,  0.000
1.00000,   0.000
   209,     9,     0,'1 ',1,1,1, 0.00000E+0, 0.00000E+0,2,'            ',1,   1,1.0000,   0,1.0000,   0,1.0000,   0,1.0000,'Dd0         '
 3.92721E-1, 3.43659E+0,    10.00
1.00437,   0.000,   0.000,     0.15,     0.20,     0.00, 0,      0, 1.50000, 0.51000, 1.50000, 0.51000, 159, 0, 0.00000, 0.00000,  0.000
1.00000,   0.000
   112,    12,     0,'1 ',1,1,1, 0.00000E+0, 0.00000E+0,2,'            ',1,   1,1.0000,   0,1.0000,   0,1.0000,   0,1.0000,'YNd1        '
 5.97231E-3, 9.63100E-2,    10.00
1.00367,   0.000,   0.000,     9.40,    12.50,     0.00, 1,    112, 1.21825, 0.99675, 1.01500, 0.98500,  33, 0, 0.00000, 0.00000,  0.000
1.00000,   0.000
    13,   613,     0,'1 ',1,1,1, 0.00000E+0, 0.00000E+0,2,'            ',1,   1,1.0000,   0,1.0000,   0,1.0000,   0,1.0000,'YNd1        '
 6.81619E-3, 1.00750E-1,    10.00
1.00671,   0.000,   0.000,     7.50,     9.38,     0.00, 1,     13, 1.15805, 0.94749, 1.01500, 0.98500,  33, 0, 0.00000, 0.00000,  0.000
1.00000,   0.000
   216,    16,     0,'1 ',1,1,1, 0.00000E+0, 0.00000E+0,2,'            ',1,   1,1.0000,   0,1.0000,   0,1.0000,   0,1.0000,'YNd1        '
 6.07587E-3, 9.79800E-2,    10.00
1.01059,   0.000,   0.000,     9.40,    12.50,     0.00, 1,    216, 1.21825, 0.99675, 1.01500, 0.98500,  33, 0, 0.00000, 0.00000,  0.000
1.00000,   0.000
...